2024_89_CemigReconfigurationCases/1_3_EstudoCasos/IIGU115/IIGU115CargaBT_Dez.dss
new load.3003288020M1 bus1=RML1053838417.1.2.3.0,Phases=3,kv=0.22,kW=6.72128,pf=0.92,Vminpu=0.92,Vmaxpu=1.5,model=1,daily=COM3_20,status=variable
new load.3003288023M1 bus1=RML1053829814.1.2.3.0,Phases=3,kv=0.22,kW=4.05982,pf=0.92,Vminpu=0.92,Vmaxpu=1.5,model=1,daily=COM2_25,status=variable
new load.3003288046M1 bus1=RML1053829814.1.2.3.0,Phases=3,kv=0.22,kW=5.10094,pf=0.92,Vminpu=0.92,Vmaxpu=1.5,model=1,daily=SERVP3_7,status=variable
new load.3000450978M1 bus1=RML1053830843.1.2.0,Phases=2,kv=0.22,kW=0.55774,pf=0.92,Vminpu=0.92,Vmaxpu=1.5,model=1,daily=RES1_6,status=variable
new load.3000450979M1 bus1=RML1053830836.1.2.3.0,Phases=3,kv=0.22,kW=0.75062,pf=0.92,Vminpu=0.92,Vmaxpu=1.5,model=1,daily=RES2_6,status=variable
new load.3000450448M1 bus1=RML1053833349.1.0,Phases=1,kv=0.127,kW=0.00502,pf=0.92,Vminpu=0.92,Vmaxpu=1.5,model=1,daily=COM1_12,status=variable
new load.3000450449M1 bus1=RML1053833335.1.0,Phases=1,kv=0.127,kW=0.80692,pf=0.92,Vminpu=0.92,Vmaxpu=1.5,model=1,daily=RES2_6,status=variable
new load.3000450451M1 bus1=RML1053833307.1.2.0,Phases=2,kv=0.22,kW=1.94628,pf=0.92,Vminpu=0.92,Vmaxpu=1.5,model=1,daily=RES3_7,status=variable
new load.3000450452M1 bus1=RML1053833314.3.0,Phases=1,kv=0.127,kW=0.50668,pf=0.92,Vminpu=0.92,Vmaxpu=1.5,model=1,daily=RES2_6,status=variable
new load.3000450453M1 bus1=RML1053833251.3.0,Phases=1,kv=0.127,kW=0.70014,pf=0.92,Vminpu=0.92,Vmaxpu=1.5,model=1,daily=RES1_6,status=variable
new load.3000450454M1 bus1=RML1053833258.1.2.0,Phases=2,kv=0.22,kW=0.4984,pf=0.92,Vminpu=0.92,Vmaxpu=1.5,model=1,daily=RES1_6,status=variable
new load.3000450455M1 bus1=RML1053833265.1.0,Phases=1,kv=0.127,kW=0.87814,pf=0.92,Vminpu=0.92,Vmaxpu=1.5,model=1,daily=RES1_6,status=variable
new load.3000450456M1 bus1=RML1053833244.2.3.0,Phases=2,kv=0.22,kW=0.98832,pf=0.92,Vminpu=0.92,Vmaxpu=1.5,model=1,daily=RES2_6,status=variable
new load.3000450457M1 bus1=RML1053833230.1.2.3.0,Phases=3,kv=0.22,kW=0.88594,pf=0.92,Vminpu=0.92,Vmaxpu=1.5,model=1,daily=RES3_7,status=variable
new load.3000450458M1 bus1=RML1053833216.1.2.3.0,Phases=3,kv=0.22,kW=0.70058,pf=0.92,Vminpu=0.92,Vmaxpu=1.5,model=1,daily=RES2_6,status=variable
new load.3000450468M1 bus1=RML1053833300.3.0,Phases=1,kv=0.127,kW=1.39518,pf=0.92,Vminpu=0.92,Vmaxpu=1.5,model=1,daily=RES3_7,status=variable
new load.3000450469M1 bus1=RML1053833321.3.0,Phases=1,kv=0.127,kW=1.8835,pf=0.92,Vminpu=0.92,Vmaxpu=1.5,model=1,daily=RES3_7,status=variable
new load.3000450472M1 bus1=RML1053833279.1.0,Phases=1,kv=0.127,kW=1.63934,pf=0.92,Vminpu=0.92,Vmaxpu=1.5,model=1,daily=RES3_7,status=variable
new load.3000450473M1 bus1=RML1053833286.1.0,Phases=1,kv=0.127,kW=0.67666,pf=0.92,Vminpu=0.92,Vmaxpu=1.5,model=1,daily=RES3_7,status=variable
new load.3000450446M1 bus1=RML1053833384.1.0,Phases=1,kv=0.127,kW=1.10916,pf=0.92,Vminpu=0.92,Vmaxpu=1.5,model=1,daily=RES3_7,status=variable
new load.3003359049M1 bus1=RML1053844717.1.2.3.0,Phases=3,kv=0.22,kW=1.14956,pf=0.92,Vminpu=0.92,Vmaxpu=1.5,model=1,daily=COM3_1,status=variable
new load.3003359051M1 bus1=RML1053844703.1.2.3.0,Phases=3,kv=0.22,kW=0.87024,pf=0.92,Vminpu=0.92,Vmaxpu=1.5,model=1,daily=RES2_1,status=variable
new load.3001176266M1 bus1=RML1053988203.3.0,Phases=1,kv=0.127,kW=0.0894,pf=0.92,Vminpu=0.92,Vmaxpu=1.5,model=1,daily=COM1_4,status=variable
new load.3003370091M1 bus1=RML1053988098.3.0,Phases=1,kv=0.127,kW=0.80944,pf=0.92,Vminpu=0.92,Vmaxpu=1.5,model=1,daily=RES1_1,status=variable
new load.3000451055M1 bus1=RML1053830766.1.2.3.0,Phases=3,kv=0.22,kW=0.79442,pf=0.92,Vminpu=0.92,Vmaxpu=1.5,model=1,daily=RES2_6,status=variable
new load.3000450997M1 bus1=RML1053829604.1.2.3.0,Phases=3,kv=0.22,kW=0.76938,pf=0.92,Vminpu=0.92,Vmaxpu=1.5,model=1,daily=RES2_6,status=variable
new load.3000450998M1 bus1=RML1053829632.1.2.0,Phases=2,kv=0.22,kW=3.03832,pf=0.92,Vminpu=0.92,Vmaxpu=1.5,model=1,daily=RES4_10,status=variable
new load.3000450999M1 bus1=RML1053829660.2.3.0,Phases=2,kv=0.22,kW=0.36786,pf=0.92,Vminpu=0.92,Vmaxpu=1.5,model=1,daily=RES1_6,status=variable
new load.3003320711M1 bus1=RML1053850695.2.0,Phases=1,kv=0.127,kW=0.77766,pf=0.92,Vminpu=0.92,Vmaxpu=1.5,model=1,daily=RES2_1,status=variable
new load.3003341853M1 bus1=RML1053829716.1.2.0,Phases=2,kv=0.22,kW=0.0841,pf=0.92,Vminpu=0.92,Vmaxpu=1.5,model=1,daily=RES1_1,status=variable
new load.3003351640M1 bus1=RML1053829905.1.0,Phases=1,kv=0.127,kW=3.41384,pf=0.92,Vminpu=0.92,Vmaxpu=1.5,model=1,daily=RES3_1,status=variable
new load.3000451008M1 bus1=RML1053829779.3.0,Phases=1,kv=0.127,kW=0.7256,pf=0.92,Vminpu=0.92,Vmaxpu=1.5,model=1,daily=RES2_6,status=variable
new load.3000451009M1 bus1=RML1053829765.1.2.3.0,Phases=3,kv=0.22,kW=0.6005,pf=0.92,Vminpu=0.92,Vmaxpu=1.5,model=1,daily=RES2_6,status=variable
new load.3000451010M1 bus1=RML1053829772.1.0,Phases=1,kv=0.127,kW=4.22832,pf=0.92,Vminpu=0.92,Vmaxpu=1.5,model=1,daily=RES4_10,status=variable
new load.3000451024M1 bus1=RML1053830178.2.3.0,Phases=2,kv=0.22,kW=0.96956,pf=0.92,Vminpu=0.92,Vmaxpu=1.5,model=1,daily=RES2_6,status=variable
new load.3000451025M1 bus1=RML1053830171.2.0,Phases=1,kv=0.127,kW=0.83068,pf=0.92,Vminpu=0.92,Vmaxpu=1.5,model=1,daily=RES1_6,status=variable
new load.3000451026M1 bus1=RML1053830185.1.0,Phases=1,kv=0.127,kW=0.55774,pf=0.92,Vminpu=0.92,Vmaxpu=1.5,model=1,daily=RES1_6,status=variable
new load.3000451028M1 bus1=RML1053830227.2.0,Phases=1,kv=0.127,kW=1.0196,pf=0.92,Vminpu=0.92,Vmaxpu=1.5,model=1,daily=RES2_6,status=variable
new load.3000451029M1 bus1=RML1053830206.1.0,Phases=1,kv=0.127,kW=0.59334,pf=0.92,Vminpu=0.92,Vmaxpu=1.5,model=1,daily=RES1_6,status=variable
new load.3000451030M1 bus1=RML1053830164.2.3.0,Phases=2,kv=0.22,kW=0.7256,pf=0.92,Vminpu=0.92,Vmaxpu=1.5,model=1,daily=RES2_6,status=variable
new load.3000451031M1 bus1=RML1053830157.1.3.0,Phases=2,kv=0.22,kW=0.88198,pf=0.92,Vminpu=0.92,Vmaxpu=1.5,model=1,daily=RES2_6,status=variable
new load.3000451032M1 bus1=RML1053830094.1.3.0,Phases=2,kv=0.22,kW=0.18766,pf=0.92,Vminpu=0.92,Vmaxpu=1.5,model=1,daily=RES2_6,status=variable
new load.3000451007M1 bus1=RML1053829982.1.0,Phases=1,kv=0.127,kW=0.46288,pf=0.92,Vminpu=0.92,Vmaxpu=1.5,model=1,daily=RES2_6,status=variable
new load.3003366159M1 bus1=RML1053830234.2.0,Phases=1,kv=0.127,kW=0.65422,pf=0.92,Vminpu=0.92,Vmaxpu=1.5,model=1,daily=RES2_1,status=variable
new load.3003364045M1 bus1=RML1053852515.1.2.0,Phases=2,kv=0.22,kW=1.65918,pf=0.92,Vminpu=0.92,Vmaxpu=1.5,model=1,daily=RES3_2,status=variable
new load.3003359057M1 bus1=RML1053844220.1.2.0,Phases=2,kv=0.22,kW=0.93196,pf=0.92,Vminpu=0.92,Vmaxpu=1.5,model=1,daily=RES2_1,status=variable
new load.3003288021M1 bus1=RML1053835862.1.2.0,Phases=2,kv=0.22,kW=3.26004,pf=0.92,Vminpu=0.92,Vmaxpu=1.5,model=1,daily=COM2_25,status=variable
new load.3000450876M1 bus1=RML1053835750.2.0,Phases=1,kv=0.127,kW=0.79442,pf=0.92,Vminpu=0.92,Vmaxpu=1.5,model=1,daily=RES2_6,status=variable
new load.3000450821M1 bus1=RML1053835827.1.2.0,Phases=2,kv=0.22,kW=0.47468,pf=0.92,Vminpu=0.92,Vmaxpu=1.5,model=1,daily=RES1_6,status=variable
new load.3000450822M1 bus1=RML1053835736.1.2.3.0,Phases=3,kv=0.22,kW=1.1322,pf=0.92,Vminpu=0.92,Vmaxpu=1.5,model=1,daily=RES2_6,status=variable
new load.3000450825M1 bus1=RML1053835666.1.2.0,Phases=2,kv=0.22,kW=0.23718,pf=0.92,Vminpu=0.92,Vmaxpu=1.5,model=1,daily=RES3_7,status=variable
new load.3000450827M1 bus1=RML1053835533.1.2.0,Phases=2,kv=0.22,kW=0.83068,pf=0.92,Vminpu=0.92,Vmaxpu=1.5,model=1,daily=RES1_6,status=variable
new load.3000450828M1 bus1=RML1053835638.1.2.3.0,Phases=3,kv=0.22,kW=1.8616,pf=0.92,Vminpu=0.92,Vmaxpu=1.5,model=1,daily=RUR3_9,status=variable
new load.3000450830M1 bus1=RML1053835673.2.0,Phases=1,kv=0.127,kW=0.8507,pf=0.92,Vminpu=0.92,Vmaxpu=1.5,model=1,daily=RES2_6,status=variable
new load.3000450831M1 bus1=RML1053835659.3.0,Phases=1,kv=0.127,kW=1.84862,pf=0.92,Vminpu=0.92,Vmaxpu=1.5,model=1,daily=RES3_7,status=variable
new load.3000450832M1 bus1=RML1053835743.1.2.0,Phases=2,kv=0.22,kW=0.97308,pf=0.92,Vminpu=0.92,Vmaxpu=1.5,model=1,daily=RES1_6,status=variable
new load.3000450833M1 bus1=RML1053835743.1.2.0,Phases=2,kv=0.22,kW=0.51028,pf=0.92,Vminpu=0.92,Vmaxpu=1.5,model=1,daily=RES1_6,status=variable
new load.3000450839M1 bus1=RML1055312120.1.0,Phases=1,kv=0.127,kW=0.92576,pf=0.92,Vminpu=0.92,Vmaxpu=1.5,model=1,daily=RES2_6,status=variable
new load.3003326265M1 bus1=RML1053415568.1.2.3.0,Phases=3,kv=0.22,kW=0.7674,pf=0.92,Vminpu=0.92,Vmaxpu=1.5,model=1,daily=RES1_1,status=variable
new load.3003341854M1 bus1=RML1053829499.2.0,Phases=1,kv=0.127,kW=0.99984,pf=0.92,Vminpu=0.92,Vmaxpu=1.5,model=1,daily=RES2_1,status=variable
new load.3003341855M1 bus1=RML1053829464.1.2.3.0,Phases=3,kv=0.22,kW=0.99984,pf=0.92,Vminpu=0.92,Vmaxpu=1.5,model=1,daily=RES2_1,status=variable
new load.3003351639M1 bus1=RML1053829506.1.0,Phases=1,kv=0.127,kW=4.15458,pf=0.92,Vminpu=0.92,Vmaxpu=1.5,model=1,daily=RES3_1,status=variable
new load.3000450990M1 bus1=RML1053829436.1.2.3.0,Phases=3,kv=0.22,kW=0.2848,pf=0.92,Vminpu=0.92,Vmaxpu=1.5,model=1,daily=RES1_6,status=variable
new load.3000450992M1 bus1=RML1053829289.2.0,Phases=1,kv=0.127,kW=1.06964,pf=0.92,Vminpu=0.92,Vmaxpu=1.5,model=1,daily=RES2_6,status=variable
new load.3000450994M1 bus1=RML1053829296.3.0,Phases=1,kv=0.127,kW=0.15426,pf=0.92,Vminpu=0.92,Vmaxpu=1.5,model=1,daily=RES1_6,status=variable
new load.3000450995M1 bus1=RML1053829443.1.2.3.0,Phases=3,kv=0.22,kW=1.09174,pf=0.92,Vminpu=0.92,Vmaxpu=1.5,model=1,daily=RES1_6,status=variable
new load.3000450996M1 bus1=RML1053829394.1.0,Phases=1,kv=0.127,kW=0.59424,pf=0.92,Vminpu=0.92,Vmaxpu=1.5,model=1,daily=RES2_6,status=variable
new load.3000451012M1 bus1=RML1053830003.1.0,Phases=1,kv=0.127,kW=0.6069,pf=0.92,Vminpu=0.92,Vmaxpu=1.5,model=1,daily=RES3_7,status=variable
new load.3000451013M1 bus1=RML1053829919.1.0,Phases=1,kv=0.127,kW=0.88198,pf=0.92,Vminpu=0.92,Vmaxpu=1.5,model=1,daily=RES2_6,status=variable
new load.3000451015M1 bus1=RML1053829856.2.0,Phases=1,kv=0.127,kW=0.01876,pf=0.92,Vminpu=0.92,Vmaxpu=1.5,model=1,daily=RES2_6,status=variable
new load.3000451016M1 bus1=RML1053829863.1.2.0,Phases=2,kv=0.22,kW=0.294,pf=0.92,Vminpu=0.92,Vmaxpu=1.5,model=1,daily=RES2_6,status=variable
new load.3000451018M1 bus1=RML1053830045.2.0,Phases=1,kv=0.127,kW=0.94454,pf=0.92,Vminpu=0.92,Vmaxpu=1.5,model=1,daily=RES2_6,status=variable
new load.3000451019M1 bus1=RML1053830108.1.2.0,Phases=2,kv=0.22,kW=1.24478,pf=0.92,Vminpu=0.92,Vmaxpu=1.5,model=1,daily=RES2_6,status=variable
new load.3000451021M1 bus1=RML1053830136.1.2.0,Phases=2,kv=0.22,kW=0.9968,pf=0.92,Vminpu=0.92,Vmaxpu=1.5,model=1,daily=RES1_6,status=variable
new load.3000451022M1 bus1=RML1053830122.2.0,Phases=1,kv=0.127,kW=1.1859,pf=0.92,Vminpu=0.92,Vmaxpu=1.5,model=1,daily=RES3_7,status=variable
new load.3000451023M1 bus1=RML1053830052.1.2.0,Phases=2,kv=0.22,kW=0.81944,pf=0.92,Vminpu=0.92,Vmaxpu=1.5,model=1,daily=RES2_6,status=variable
new load.3003315934M1 bus1=RML1053829793.1.0,Phases=1,kv=0.127,kW=0.431,pf=0.92,Vminpu=0.92,Vmaxpu=1.5,model=1,daily=RES1_1,status=variable
new load.3003366158M1 bus1=RML1053829891.2.0,Phases=1,kv=0.127,kW=1.18178,pf=0.92,Vminpu=0.92,Vmaxpu=1.5,model=1,daily=RES3_2,status=variable
new load.3003365167M1 bus1=RML1053830269.3.0,Phases=1,kv=0.127,kW=0.82704,pf=0.92,Vminpu=0.92,Vmaxpu=1.5,model=1,daily=RES2_1,status=variable
new load.3003366160M1 bus1=RML1053830388.2.0,Phases=1,kv=0.127,kW=0.9443,pf=0.92,Vminpu=0.92,Vmaxpu=1.5,model=1,daily=RES2_1,status=variable
new load.3003341857M1 bus1=RML1053830542.1.0,Phases=1,kv=0.127,kW=0.8332,pf=0.92,Vminpu=0.92,Vmaxpu=1.5,model=1,daily=RES2_1,status=variable
new load.3000451002M1 bus1=RML1053830437.2.0,Phases=1,kv=0.127,kW=0.66454,pf=0.92,Vminpu=0.92,Vmaxpu=1.5,model=1,daily=RES1_6,status=variable
new load.3000451004M1 bus1=RML1053830311.1.0,Phases=1,kv=0.127,kW=0.9508,pf=0.92,Vminpu=0.92,Vmaxpu=1.5,model=1,daily=RES2_6,status=variable
new load.3000451033M1 bus1=RML1053830535.2.3.0,Phases=2,kv=0.22,kW=0.70014,pf=0.92,Vminpu=0.92,Vmaxpu=1.5,model=1,daily=RES1_6,status=variable
new load.3000451035M1 bus1=RML1053830465.1.0,Phases=1,kv=0.127,kW=0.66306,pf=0.92,Vminpu=0.92,Vmaxpu=1.5,model=1,daily=RES2_6,status=variable
new load.3000451036M1 bus1=RML1053830367.3.0,Phases=1,kv=0.127,kW=1.49284,pf=0.92,Vminpu=0.92,Vmaxpu=1.5,model=1,daily=RES3_7,status=variable
new load.3000451037M1 bus1=RML1053830304.1.2.0,Phases=2,kv=0.22,kW=1.31844,pf=0.92,Vminpu=0.92,Vmaxpu=1.5,model=1,daily=RES3_7,status=variable
new load.3000451038M1 bus1=RML1053830479.2.0,Phases=1,kv=0.127,kW=1.70212,pf=0.92,Vminpu=0.92,Vmaxpu=1.5,model=1,daily=RES3_7,status=variable
new load.3000451039M1 bus1=RML1053830570.1.2.0,Phases=2,kv=0.22,kW=1.20726,pf=0.92,Vminpu=0.92,Vmaxpu=1.5,model=1,daily=RES2_6,status=variable
new load.3000451040M1 bus1=RML1053830577.1.2.3.0,Phases=3,kv=0.22,kW=0.94454,pf=0.92,Vminpu=0.92,Vmaxpu=1.5,model=1,daily=RES2_6,status=variable
new load.3000451041M1 bus1=RML1053830493.1.2.3.0,Phases=3,kv=0.22,kW=0.2023,pf=0.92,Vminpu=0.92,Vmaxpu=1.5,model=1,daily=RES3_7,status=variable
new load.3000451042M1 bus1=RML1053830696.2.0,Phases=1,kv=0.127,kW=0.80066,pf=0.92,Vminpu=0.92,Vmaxpu=1.5,model=1,daily=RES2_6,status=variable
new load.3000451043M1 bus1=RML1053830682.1.2.0,Phases=2,kv=0.22,kW=0.46914,pf=0.92,Vminpu=0.92,Vmaxpu=1.5,model=1,daily=RES2_6,status=variable
new load.3000451044M1 bus1=RML1053830731.1.2.3.0,Phases=3,kv=0.22,kW=1.31844,pf=0.92,Vminpu=0.92,Vmaxpu=1.5,model=1,daily=RES3_7,status=variable
new load.3000451045M1 bus1=RML1053830738.1.0,Phases=1,kv=0.127,kW=1.3603,pf=0.92,Vminpu=0.92,Vmaxpu=1.5,model=1,daily=RES3_7,status=variable
new load.3000451000M1 bus1=RML1053830633.1.2.0,Phases=2,kv=0.22,kW=0.51028,pf=0.92,Vminpu=0.92,Vmaxpu=1.5,model=1,daily=RES1_6,status=variable
new load.3000451046M1 bus1=RML1053830948.1.2.3.0,Phases=3,kv=0.22,kW=1.31544,pf=0.92,Vminpu=0.92,Vmaxpu=1.5,model=1,daily=COM1_12,status=variable
new load.3003288045M1 bus1=RML1058345002.1.2.3.0,Phases=3,kv=0.22,kW=8.91974,pf=0.92,Vminpu=0.92,Vmaxpu=1.5,model=1,daily=COM3_20,status=variable
new load.3000450986M1 bus1=RML1053830885.1.2.0,Phases=2,kv=0.22,kW=0.43786,pf=0.92,Vminpu=0.92,Vmaxpu=1.5,model=1,daily=RES2_6,status=variable
new load.3000450972M1 bus1=RML1053831025.2.0,Phases=1,kv=0.127,kW=1.28356,pf=0.92,Vminpu=0.92,Vmaxpu=1.5,model=1,daily=RES3_7,status=variable
new load.3000450975M1 bus1=RML1053830983.1.0,Phases=1,kv=0.127,kW=0.79508,pf=0.92,Vminpu=0.92,Vmaxpu=1.5,model=1,daily=RES1_6,status=variable
new load.3000450977M1 bus1=RML1053830976.1.2.3.0,Phases=3,kv=0.22,kW=0.73186,pf=0.92,Vminpu=0.92,Vmaxpu=1.5,model=1,daily=RES2_6,status=variable
new load.3000450961M1 bus1=RML1053831144.2.0,Phases=1,kv=0.127,kW=0.59424,pf=0.92,Vminpu=0.92,Vmaxpu=1.5,model=1,daily=RES2_6,status=variable
new load.3000450962M1 bus1=RML1053831081.1.2.3.0,Phases=3,kv=0.22,kW=0.88824,pf=0.92,Vminpu=0.92,Vmaxpu=1.5,model=1,daily=RES2_6,status=variable
new load.3000450963M1 bus1=RML1053831088.2.0,Phases=1,kv=0.127,kW=0.94454,pf=0.92,Vminpu=0.92,Vmaxpu=1.5,model=1,daily=RES2_6,status=variable
new load.3000450964M1 bus1=RML1053831102.2.0,Phases=1,kv=0.127,kW=0.75688,pf=0.92,Vminpu=0.92,Vmaxpu=1.5,model=1,daily=RES2_6,status=variable
new load.3000450965M1 bus1=RML1053831053.1.2.0,Phases=2,kv=0.22,kW=0.63178,pf=0.92,Vminpu=0.92,Vmaxpu=1.5,model=1,daily=RES2_6,status=variable
new load.3000451047M1 bus1=RML1060500127.2.3.0,Phases=2,kv=0.22,kW=0.99458,pf=0.92,Vminpu=0.92,Vmaxpu=1.5,model=1,daily=RES2_6,status=variable
new load.3000451048M1 bus1=RML1053831277.1.2.3.0,Phases=3,kv=0.22,kW=0.73574,pf=0.92,Vminpu=0.92,Vmaxpu=1.5,model=1,daily=RES1_6,status=variable
new load.3000451051M1 bus1=RML1053831382.3.0,Phases=1,kv=0.127,kW=0.3503,pf=0.92,Vminpu=0.92,Vmaxpu=1.5,model=1,daily=RES2_6,status=variable
new load.3000451052M1 bus1=RML1053831368.1.2.3.0,Phases=3,kv=0.22,kW=3.89918,pf=0.92,Vminpu=0.92,Vmaxpu=1.5,model=1,daily=RES4_10,status=variable
new load.3000451053M1 bus1=RML1053831396.1.2.0,Phases=2,kv=0.22,kW=1.54168,pf=0.92,Vminpu=0.92,Vmaxpu=1.5,model=1,daily=RES3_7,status=variable
new load.3000451054M1 bus1=RML1053831403.1.0,Phases=1,kv=0.127,kW=1.00708,pf=0.92,Vminpu=0.92,Vmaxpu=1.5,model=1,daily=RES2_6,status=variable
new load.3003351643M1 bus1=RML1053831242.2.0,Phases=1,kv=0.127,kW=1.11094,pf=0.92,Vminpu=0.92,Vmaxpu=1.5,model=1,daily=RES2_1,status=variable
new load.3000450966M1 bus1=RML1053831459.3.0,Phases=1,kv=0.127,kW=0.01186,pf=0.92,Vminpu=0.92,Vmaxpu=1.5,model=1,daily=RES1_6,status=variable
new load.3000450967M1 bus1=RML1053831571.2.0,Phases=1,kv=0.127,kW=0.93828,pf=0.92,Vminpu=0.92,Vmaxpu=1.5,model=1,daily=RES2_6,status=variable
new load.3000450969M1 bus1=RML1053831592.3.0,Phases=1,kv=0.127,kW=0.99458,pf=0.92,Vminpu=0.92,Vmaxpu=1.5,model=1,daily=RES2_6,status=variable
new load.3000450970M1 bus1=RML1053831480.2.0,Phases=1,kv=0.127,kW=0.48134,pf=0.92,Vminpu=0.92,Vmaxpu=1.5,model=1,daily=RES3_7,status=variable
new load.3000450971M1 bus1=RML1053831473.2.3.0,Phases=2,kv=0.22,kW=0.27522,pf=0.92,Vminpu=0.92,Vmaxpu=1.5,model=1,daily=RES2_6,status=variable
new load.3000450939M1 bus1=RML1053832124.3.0,Phases=1,kv=0.127,kW=0.8382,pf=0.92,Vminpu=0.92,Vmaxpu=1.5,model=1,daily=RES2_6,status=variable
new load.3000450940M1 bus1=RML1053832180.1.2.0,Phases=2,kv=0.22,kW=0.2848,pf=0.92,Vminpu=0.92,Vmaxpu=1.5,model=1,daily=RES1_6,status=variable
new load.3000450941M1 bus1=RML1053832215.1.2.0,Phases=2,kv=0.22,kW=0.92576,pf=0.92,Vminpu=0.92,Vmaxpu=1.5,model=1,daily=RES2_6,status=variable
new load.3000450942M1 bus1=RML1053832250.1.2.3.0,Phases=3,kv=0.22,kW=0.70684,pf=0.92,Vminpu=0.92,Vmaxpu=1.5,model=1,daily=RES2_6,status=variable
new load.3000450943M1 bus1=RML1053832229.3.0,Phases=1,kv=0.127,kW=0.71934,pf=0.92,Vminpu=0.92,Vmaxpu=1.5,model=1,daily=RES2_6,status=variable
new load.3000450944M1 bus1=RML1053832271.1.2.3.0,Phases=3,kv=0.22,kW=0.70014,pf=0.92,Vminpu=0.92,Vmaxpu=1.5,model=1,daily=RES1_6,status=variable
new load.3000450946M1 bus1=RML1053832257.3.0,Phases=1,kv=0.127,kW=1.75792,pf=0.92,Vminpu=0.92,Vmaxpu=1.5,model=1,daily=RES3_7,status=variable
new load.3000450947M1 bus1=RML1053832208.3.0,Phases=1,kv=0.127,kW=0.22518,pf=0.92,Vminpu=0.92,Vmaxpu=1.5,model=1,daily=RES2_6,status=variable
new load.3000450948M1 bus1=RML1053832187.1.3.0,Phases=2,kv=0.22,kW=0.64428,pf=0.92,Vminpu=0.92,Vmaxpu=1.5,model=1,daily=RES2_6,status=variable
new load.3000450949M1 bus1=RML1053832075.1.2.3.0,Phases=3,kv=0.22,kW=0.62894,pf=0.92,Vminpu=0.92,Vmaxpu=1.5,model=1,daily=RES1_6,status=variable
new load.3000450950M1 bus1=RML1053832047.3.0,Phases=1,kv=0.127,kW=0.75688,pf=0.92,Vminpu=0.92,Vmaxpu=1.5,model=1,daily=RES2_6,status=variable
new load.3000450952M1 bus1=RML1053832012.1.2.0,Phases=2,kv=0.22,kW=0.56296,pf=0.92,Vminpu=0.92,Vmaxpu=1.5,model=1,daily=RES2_6,status=variable
new load.3000450314M1 bus1=RML1053832222.1.2.3.0,Phases=3,kv=0.22,kW=1.47888,pf=0.92,Vminpu=0.92,Vmaxpu=1.5,model=1,daily=RES3_7,status=variable
new load.3003343827M1 bus1=RML1053832467.1.0,Phases=1,kv=0.127,kW=0.65176,pf=0.92,Vminpu=0.92,Vmaxpu=1.5,model=1,daily=RES1_1,status=variable
new load.3003351638M1 bus1=RML1053832285.1.2.0,Phases=2,kv=0.22,kW=0.74636,pf=0.92,Vminpu=0.92,Vmaxpu=1.5,model=1,daily=RES1_1,status=variable
new load.3003354321M1 bus1=RML1053832243.1.2.0,Phases=2,kv=0.22,kW=0.93814,pf=0.92,Vminpu=0.92,Vmaxpu=1.5,model=1,daily=RES2_1,status=variable
new load.3003354322M1 bus1=RML1053832474.2.3.0,Phases=2,kv=0.22,kW=3.49436,pf=0.92,Vminpu=0.92,Vmaxpu=1.5,model=1,daily=RES3_1,status=variable
new load.3003366156M1 bus1=RML1053832292.2.0,Phases=1,kv=0.127,kW=0.89492,pf=0.92,Vminpu=0.92,Vmaxpu=1.5,model=1,daily=RES2_1,status=variable
new load.3000451058M1 bus1=RML1053832341.1.0,Phases=1,kv=0.127,kW=0.52214,pf=0.92,Vminpu=0.92,Vmaxpu=1.5,model=1,daily=RES1_6,status=variable
new load.3000451059M1 bus1=RML1053832355.1.2.3.0,Phases=3,kv=0.22,kW=1.3045,pf=0.92,Vminpu=0.92,Vmaxpu=1.5,model=1,daily=RES3_7,status=variable
new load.3000450599M1 bus1=RML1053832432.1.2.3.0,Phases=3,kv=0.22,kW=0.81318,pf=0.92,Vminpu=0.92,Vmaxpu=1.5,model=1,daily=RES2_6,status=variable
new load.3000450600M1 bus1=RML1053832383.1.2.3.0,Phases=3,kv=0.22,kW=1.40216,pf=0.92,Vminpu=0.92,Vmaxpu=1.5,model=1,daily=RES3_7,status=variable
new load.3000450602M1 bus1=RML1053832362.1.3.0,Phases=2,kv=0.22,kW=1.10916,pf=0.92,Vminpu=0.92,Vmaxpu=1.5,model=1,daily=RES3_7,status=variable
new load.3000450605M1 bus1=RML1053832453.1.2.3.0,Phases=3,kv=0.22,kW=0.93888,pf=0.92,Vminpu=0.92,Vmaxpu=1.5,model=1,daily=COM1_12,status=variable
new load.3000450596M1 bus1=RML1053832523.1.2.3.0,Phases=3,kv=0.22,kW=7.22628,pf=0.92,Vminpu=0.92,Vmaxpu=1.5,model=1,daily=COM3_10,status=variable
new load.3000450598M1 bus1=RML1053832495.1.2.3.0,Phases=3,kv=0.22,kW=1.08824,pf=0.92,Vminpu=0.92,Vmaxpu=1.5,model=1,daily=RES3_7,status=variable
new load.3000450507M1 bus1=RML1053832509.1.2.3.0,Phases=3,kv=0.22,kW=1.85904,pf=0.92,Vminpu=0.92,Vmaxpu=1.5,model=1,daily=COM3_10,status=variable
new load.3000451056M1 bus1=RML1053832481.2.3.0,Phases=2,kv=0.22,kW=0.86948,pf=0.92,Vminpu=0.92,Vmaxpu=1.5,model=1,daily=RES2_6,status=variable
new load.3003288012M1 bus1=RML1055167710.1.2.3.0,Phases=3,kv=0.22,kW=3.78132,pf=0.92,Vminpu=0.92,Vmaxpu=1.5,model=1,daily=RES6_17,status=variable
new load.3000450508M1 bus1=RML1053832677.2.0,Phases=1,kv=0.127,kW=0.67556,pf=0.92,Vminpu=0.92,Vmaxpu=1.5,model=1,daily=RES2_6,status=variable
new load.3000450509M1 bus1=RML1053832670.3.0,Phases=1,kv=0.127,kW=0.34404,pf=0.92,Vminpu=0.92,Vmaxpu=1.5,model=1,daily=RES2_6,status=variable
new load.3000450498M1 bus1=RML1053832817.2.0,Phases=1,kv=0.127,kW=1.00708,pf=0.92,Vminpu=0.92,Vmaxpu=1.5,model=1,daily=RES2_6,status=variable
new load.3000450499M1 bus1=RML1053832810.1.0,Phases=1,kv=0.127,kW=0.87572,pf=0.92,Vminpu=0.92,Vmaxpu=1.5,model=1,daily=RES2_6,status=variable
new load.3000450500M1 bus1=RML1053832600.2.3.0,Phases=2,kv=0.22,kW=1.68118,pf=0.92,Vminpu=0.92,Vmaxpu=1.5,model=1,daily=RES3_7,status=variable
new load.3000450501M1 bus1=RML1053832572.1.0,Phases=1,kv=0.127,kW=1.45098,pf=0.92,Vminpu=0.92,Vmaxpu=1.5,model=1,daily=RES3_7,status=variable
new load.3000450502M1 bus1=RML1053832558.2.0,Phases=1,kv=0.127,kW=0.4984,pf=0.92,Vminpu=0.92,Vmaxpu=1.5,model=1,daily=RES1_6,status=variable
new load.3000450504M1 bus1=RML1053832740.1.2.3.0,Phases=3,kv=0.22,kW=1.26356,pf=0.92,Vminpu=0.92,Vmaxpu=1.5,model=1,daily=RES2_6,status=variable
new load.3000450505M1 bus1=RML1053832649.1.0,Phases=1,kv=0.127,kW=1.1022,pf=0.92,Vminpu=0.92,Vmaxpu=1.5,model=1,daily=RES3_7,status=variable
new load.3000450475M1 bus1=RML1053832838.1.3.0,Phases=2,kv=0.22,kW=0.7256,pf=0.92,Vminpu=0.92,Vmaxpu=1.5,model=1,daily=RES2_6,status=variable
new load.3000450459M1 bus1=RML1053832782.3.0,Phases=1,kv=0.127,kW=0.73186,pf=0.92,Vminpu=0.92,Vmaxpu=1.5,model=1,daily=RES2_6,status=variable
new load.3000450460M1 bus1=RML1053832803.1.2.3.0,Phases=3,kv=0.22,kW=1.84164,pf=0.92,Vminpu=0.92,Vmaxpu=1.5,model=1,daily=RES3_7,status=variable
new load.3000450461M1 bus1=RML1053832712.2.3.0,Phases=2,kv=0.22,kW=0.69432,pf=0.92,Vminpu=0.92,Vmaxpu=1.5,model=1,daily=RES2_6,status=variable
new load.3000450462M1 bus1=RML1059620815.1.2.3.0,Phases=3,kv=0.22,kW=1.38122,pf=0.92,Vminpu=0.92,Vmaxpu=1.5,model=1,daily=RES3_7,status=variable
new load.3000450463M1 bus1=RML1055358138.3.0,Phases=1,kv=0.127,kW=0.58798,pf=0.92,Vminpu=0.92,Vmaxpu=1.5,model=1,daily=RES2_6,status=variable
new load.3000450464M1 bus1=RML1053832621.3.0,Phases=1,kv=0.127,kW=0.61926,pf=0.92,Vminpu=0.92,Vmaxpu=1.5,model=1,daily=RES2_6,status=variable
new load.3000450465M1 bus1=RML1053832656.1.0,Phases=1,kv=0.127,kW=1.65328,pf=0.92,Vminpu=0.92,Vmaxpu=1.5,model=1,daily=RES3_7,status=variable
new load.3000450466M1 bus1=RML1053832719.1.2.0,Phases=2,kv=0.22,kW=1.0759,pf=0.92,Vminpu=0.92,Vmaxpu=1.5,model=1,daily=RES2_6,status=variable
new load.3000450467M1 bus1=RML1053832768.2.0,Phases=1,kv=0.127,kW=1.13706,pf=0.92,Vminpu=0.92,Vmaxpu=1.5,model=1,daily=RES3_7,status=variable
new load.3000450937M1 bus1=RML1053832586.3.0,Phases=1,kv=0.127,kW=0.53794,pf=0.92,Vminpu=0.92,Vmaxpu=1.5,model=1,daily=RES2_6,status=variable
new load.3000450938M1 bus1=RML1053832145.1.2.3.0,Phases=3,kv=0.22,kW=0.80066,pf=0.92,Vminpu=0.92,Vmaxpu=1.5,model=1,daily=RES2_6,status=variable
new load.3000450608M1 bus1=RML1053832894.2.0,Phases=1,kv=0.127,kW=0.8945,pf=0.92,Vminpu=0.92,Vmaxpu=1.5,model=1,daily=RES2_6,status=variable
new load.3000450579M1 bus1=RML1053833146.1.2.3.0,Phases=3,kv=0.22,kW=1.56958,pf=0.92,Vminpu=0.92,Vmaxpu=1.5,model=1,daily=RES3_7,status=variable
new load.3000450580M1 bus1=RML1053833125.1.2.3.0,Phases=3,kv=0.22,kW=1.86328,pf=0.92,Vminpu=0.92,Vmaxpu=1.5,model=1,daily=COM2_11,status=variable
new load.3000450582M1 bus1=RML1053833083.2.0,Phases=1,kv=0.127,kW=1.48586,pf=0.92,Vminpu=0.92,Vmaxpu=1.5,model=1,daily=RES3_7,status=variable
new load.3000450583M1 bus1=RML1053833090.1.2.0,Phases=2,kv=0.22,kW=0.613,pf=0.92,Vminpu=0.92,Vmaxpu=1.5,model=1,daily=RES2_6,status=variable
new load.3000450584M1 bus1=RML1053833097.1.2.3.0,Phases=3,kv=0.22,kW=0.05934,pf=0.92,Vminpu=0.92,Vmaxpu=1.5,model=1,daily=RES1_6,status=variable
new load.3000450591M1 bus1=RML1053832985.1.2.3.0,Phases=3,kv=0.22,kW=0.6052,pf=0.92,Vminpu=0.92,Vmaxpu=1.5,model=1,daily=RES1_6,status=variable
new load.3000450611M1 bus1=RML1053832922.3.0,Phases=1,kv=0.127,kW=1.15482,pf=0.92,Vminpu=0.92,Vmaxpu=1.5,model=1,daily=RES5_9,status=variable
new load.3000450612M1 bus1=RML1053832915.3.0,Phases=1,kv=0.127,kW=0.65054,pf=0.92,Vminpu=0.92,Vmaxpu=1.5,model=1,daily=RES2_6,status=variable
new load.3000450614M1 bus1=RML1053832936.1.0,Phases=1,kv=0.127,kW=0.77564,pf=0.92,Vminpu=0.92,Vmaxpu=1.5,model=1,daily=RES2_6,status=variable
new load.3000450615M1 bus1=RML1053832943.1.2.3.0,Phases=3,kv=0.22,kW=0.7832,pf=0.92,Vminpu=0.92,Vmaxpu=1.5,model=1,daily=RES1_6,status=variable
new load.3000450618M1 bus1=RML1053832971.2.0,Phases=1,kv=0.127,kW=1.25566,pf=0.92,Vminpu=0.92,Vmaxpu=1.5,model=1,daily=RES3_7,status=variable
new load.3000450620M1 bus1=RML1053833006.3.0,Phases=1,kv=0.127,kW=0.71934,pf=0.92,Vminpu=0.92,Vmaxpu=1.5,model=1,daily=RES2_6,status=variable
new load.3000450622M1 bus1=RML1053832992.2.0,Phases=1,kv=0.127,kW=1.71606,pf=0.92,Vminpu=0.92,Vmaxpu=1.5,model=1,daily=RES3_7,status=variable
new load.3000450623M1 bus1=RML1053833027.3.0,Phases=1,kv=0.127,kW=3.41812,pf=0.92,Vminpu=0.92,Vmaxpu=1.5,model=1,daily=RES4_10,status=variable
new load.3000450625M1 bus1=RML1053833013.1.2.3.0,Phases=3,kv=0.22,kW=0.74436,pf=0.92,Vminpu=0.92,Vmaxpu=1.5,model=1,daily=RES2_6,status=variable
new load.3000450626M1 bus1=RML1053833013.1.2.3.0,Phases=3,kv=0.22,kW=0.53794,pf=0.92,Vminpu=0.92,Vmaxpu=1.5,model=1,daily=RES2_6,status=variable
new load.3000450628M1 bus1=RML1053833048.1.2.3.0,Phases=3,kv=0.22,kW=1.25566,pf=0.92,Vminpu=0.92,Vmaxpu=1.5,model=1,daily=RES3_7,status=variable
new load.3000450632M1 bus1=RML1053833111.1.2.3.0,Phases=3,kv=0.22,kW=0.4619,pf=0.92,Vminpu=0.92,Vmaxpu=1.5,model=1,daily=COM1_12,status=variable
new load.3000450634M1 bus1=RML1053833167.1.2.3.0,Phases=3,kv=0.22,kW=3.08046,pf=0.92,Vminpu=0.92,Vmaxpu=1.5,model=1,daily=COM3_10,status=variable
new load.3000450636M1 bus1=RML1053833153.1.2.3.0,Phases=3,kv=0.22,kW=0.20174,pf=0.92,Vminpu=0.92,Vmaxpu=1.5,model=1,daily=RES1_6,status=variable
new load.3000450645M1 bus1=RML1053833188.1.2.3.0,Phases=3,kv=0.22,kW=0.17572,pf=0.92,Vminpu=0.92,Vmaxpu=1.5,model=1,daily=COM1_12,status=variable
new load.3000450646M1 bus1=RML1053833202.1.0,Phases=1,kv=0.127,kW=1.50626,pf=0.92,Vminpu=0.92,Vmaxpu=1.5,model=1,daily=COM2_11,status=variable
new load.3000450647M1 bus1=RML1053833181.2.3.0,Phases=2,kv=0.22,kW=2.76496,pf=0.92,Vminpu=0.92,Vmaxpu=1.5,model=1,daily=RES1_6,status=variable
new load.3000450648M1 bus1=RML1053833195.3.0,Phases=1,kv=0.127,kW=1.20498,pf=0.92,Vminpu=0.92,Vmaxpu=1.5,model=1,daily=COM1_12,status=variable
new load.3000450447M1 bus1=RML1053833377.1.2.3.0,Phases=3,kv=0.22,kW=0.78816,pf=0.92,Vminpu=0.92,Vmaxpu=1.5,model=1,daily=RES2_6,status=variable
new load.3000450497M1 bus1=RML1053833447.3.0,Phases=1,kv=0.127,kW=0.45094,pf=0.92,Vminpu=0.92,Vmaxpu=1.5,model=1,daily=RES1_6,status=variable
new load.3000450562M1 bus1=RML1053833482.1.0,Phases=1,kv=0.127,kW=0.08306,pf=0.92,Vminpu=0.92,Vmaxpu=1.5,model=1,daily=RES1_6,status=variable
new load.3000450479M1 bus1=RML1053833440.1.2.3.0,Phases=3,kv=0.22,kW=1.0196,pf=0.92,Vminpu=0.92,Vmaxpu=1.5,model=1,daily=RES2_6,status=variable
new load.3000450480M1 bus1=RML1053833363.1.2.3.0,Phases=3,kv=0.22,kW=1.09466,pf=0.92,Vminpu=0.92,Vmaxpu=1.5,model=1,daily=RES2_6,status=variable
new load.3000450481M1 bus1=RML1053833433.2.0,Phases=1,kv=0.127,kW=0.45038,pf=0.92,Vminpu=0.92,Vmaxpu=1.5,model=1,daily=RES2_6,status=variable
...